# created with PyMOL 3.1.6.1
@<TRIPOS>MOLECULE
131411
54 56 1                 
SMALL
USER_CHARGES
@<TRIPOS>ATOM
1	  Br	2.537	-1.872	0.000	Br	1	UNK0	0.000	
2	   S	8.165	-1.738	0.000	S.3	1	UNK0	0.000	
3	   O	2.537	0.128	0.000	O.3	1	UNK0	0.000	
4	   O	7.370	1.089	0.000	O.3	1	UNK0	0.000	
5	   O	5.724	1.627	0.000	O.co2	1	UNK0	0.000	
6	   N	6.081	-1.677	0.000	N.pl3	1	UNK0	0.000	
7	   N	3.403	1.628	0.000	N.3	1	UNK0	0.000	
8	   C	5.135	-0.372	0.000	C.2	1	UNK0	0.000	
9	   C	5.135	-1.372	0.000	C.2	1	UNK0	0.000	
10	   C	6.665	-0.872	0.000	C.2	1	UNK0	0.000	
11	   C	6.081	-0.068	0.000	C.2	1	UNK0	0.000	
12	   C	4.269	0.128	0.000	C.2	1	UNK0	0.000	
13	   C	4.269	1.128	0.000	C.3	1	UNK0	0.000	
14	   C	4.269	-1.872	0.000	C.2	1	UNK0	0.000	
15	   C	3.403	-0.372	0.000	C.2	1	UNK0	0.000	
16	   C	7.665	-0.872	0.000	C.3	1	UNK0	0.000	
17	   C	6.392	-2.628	0.000	C.3	1	UNK0	0.000	
18	   C	3.403	-1.372	0.000	C.2	1	UNK0	0.000	
19	   C	6.392	0.883	0.000	C.2	1	UNK0	0.000	
20	   C	3.403	2.628	0.000	C.3	1	UNK0	0.000	
21	   C	2.537	1.128	0.000	C.3	1	UNK0	0.000	
22	   C	9.165	-1.738	0.000	C.2	1	UNK0	0.000	
23	   C	7.681	2.040	0.000	C.3	1	UNK0	0.000	
24	   C	9.665	-2.604	0.000	C.2	1	UNK0	0.000	
25	   C	9.665	-0.872	0.000	C.2	1	UNK0	0.000	
26	   C	8.660	2.246	0.000	C.3	1	UNK0	0.000	
27	   C	10.665	-2.604	0.000	C.2	1	UNK0	0.000	
28	   C	10.665	-0.872	0.000	C.2	1	UNK0	0.000	
29	   C	11.165	-1.738	0.000	C.2	1	UNK0	0.000	
30	   H	4.880	1.020	0.000	 H	1	UNK0	0.000	
31	   H	4.481	1.710	0.000	 H	1	UNK0	0.000	
32	   H	4.269	-2.492	0.000	 H	1	UNK0	0.000	
33	   H	8.248	-0.660	0.000	 H	1	UNK0	0.000	
34	   H	7.557	-0.262	0.000	 H	1	UNK0	0.000	
35	   H	5.803	-2.820	0.000	 H	1	UNK0	0.000	
36	   H	6.584	-3.217	0.000	 H	1	UNK0	0.000	
37	   H	6.981	-2.435	0.000	 H	1	UNK0	0.000	
38	   H	4.023	2.628	0.000	 H	1	UNK0	0.000	
39	   H	3.403	3.248	0.000	 H	1	UNK0	0.000	
40	   H	2.783	2.628	0.000	 H	1	UNK0	0.000	
41	   H	2.227	1.665	0.000	 H	1	UNK0	0.000	
42	   H	2.000	0.818	0.000	 H	1	UNK0	0.000	
43	   H	2.847	0.591	0.000	 H	1	UNK0	0.000	
44	   H	2.000	-0.182	0.000	 H	1	UNK0	0.000	
45	   H	7.661	2.659	0.000	 H	1	UNK0	0.000	
46	   H	7.067	2.127	0.000	 H	1	UNK0	0.000	
47	   H	9.355	-3.141	0.000	 H	1	UNK0	0.000	
48	   H	9.355	-0.335	0.000	 H	1	UNK0	0.000	
49	   H	8.787	1.639	0.000	 H	1	UNK0	0.000	
50	   H	9.266	2.374	0.000	 H	1	UNK0	0.000	
51	   H	8.532	2.852	0.000	 H	1	UNK0	0.000	
52	   H	10.975	-3.141	0.000	 H	1	UNK0	0.000	
53	   H	10.975	-0.335	0.000	 H	1	UNK0	0.000	
54	   H	11.785	-1.738	0.000	 H	1	UNK0	0.000	
@<TRIPOS>BOND
1 1 18 1
2 2 16 1
3 2 22 1
4 3 15 1
5 3 44 1
6 4 19 1
7 4 23 1
8 5 19 2
9 6 9 1
10 6 10 1
11 6 17 1
12 7 13 1
13 7 20 1
14 7 21 1
15 8 9 1
16 8 11 1
17 8 12 2
18 9 14 2
19 10 11 2
20 10 16 1
21 11 19 1
22 12 13 1
23 12 15 1
24 13 30 1
25 13 31 1
26 14 18 1
27 14 32 1
28 15 18 2
29 16 33 1
30 16 34 1
31 17 35 1
32 17 36 1
33 17 37 1
34 20 38 1
35 20 39 1
36 20 40 1
37 21 41 1
38 21 42 1
39 21 43 1
40 22 24 2
41 22 25 1
42 23 26 1
43 23 45 1
44 23 46 1
45 24 27 1
46 24 47 1
47 25 28 2
48 25 48 1
49 26 49 1
50 26 50 1
51 26 51 1
52 27 29 2
53 27 52 1
54 28 29 1
55 28 53 1
56 29 54 1
@<TRIPOS>SUBSTRUCTURE
1	UNK0	1	GROUP	1 ****	UNK
