# created with PyMOL 3.1.6.1
@<TRIPOS>MOLECULE
65028
50 50 1                 
SMALL
USER_CHARGES
@<TRIPOS>ATOM
1	   O	4.598	1.250	0.000	O.3	1	UNK0	0.000	
2	   O	5.464	-2.250	0.000	O.3	1	UNK0	0.000	
3	   O	7.196	-2.250	0.000	O.co2	1	UNK0	0.000	
4	   O	4.598	2.250	0.000	O.2	1	UNK0	0.000	
5	   N	6.330	2.250	0.000	N.pl3	1	UNK0	0.000	
6	   N	8.062	1.250	0.000	N.3	1	UNK0	0.000	
7	   C	6.330	1.250	0.000	C.3	1	UNK0	0.000	
8	   C	7.196	0.750	0.000	C.3	1	UNK0	0.000	
9	   C	5.464	0.750	0.000	C.3	1	UNK0	0.000	
10	   C	7.196	-0.250	0.000	C.3	1	UNK0	0.000	
11	   C	5.464	-0.250	0.000	C.2	1	UNK0	0.000	
12	   C	6.330	-0.750	0.000	C.2	1	UNK0	0.000	
13	   C	3.732	0.750	0.000	C.3	1	UNK0	0.000	
14	   C	2.866	1.250	0.000	C.3	1	UNK0	0.000	
15	   C	3.732	-0.250	0.000	C.3	1	UNK0	0.000	
16	   C	6.330	-1.750	0.000	C.2	1	UNK0	0.000	
17	   C	5.464	2.750	0.000	C.2	1	UNK0	0.000	
18	   C	2.000	0.750	0.000	C.3	1	UNK0	0.000	
19	   C	2.866	-0.750	0.000	C.3	1	UNK0	0.000	
20	   C	5.464	3.750	0.000	C.3	1	UNK0	0.000	
21	   C	5.464	-3.250	0.000	C.3	1	UNK0	0.000	
22	   C	4.598	-3.750	0.000	C.3	1	UNK0	0.000	
23	   H	6.867	1.560	0.000	 H	1	UNK0	0.000	
24	   H	7.733	0.440	0.000	 H	1	UNK0	0.000	
25	   H	5.464	1.370	0.000	 H	1	UNK0	0.000	
26	   H	7.408	-0.833	0.000	 H	1	UNK0	0.000	
27	   H	7.807	-0.142	0.000	 H	1	UNK0	0.000	
28	   H	4.927	-0.560	0.000	 H	1	UNK0	0.000	
29	   H	3.732	1.370	0.000	 H	1	UNK0	0.000	
30	   H	6.867	2.560	0.000	 H	1	UNK0	0.000	
31	   H	8.599	0.940	0.000	 H	1	UNK0	0.000	
32	   H	8.062	1.870	0.000	 H	1	UNK0	0.000	
33	   H	3.265	1.725	0.000	 H	1	UNK0	0.000	
34	   H	2.467	1.725	0.000	 H	1	UNK0	0.000	
35	   H	3.944	-0.833	0.000	 H	1	UNK0	0.000	
36	   H	4.343	-0.142	0.000	 H	1	UNK0	0.000	
37	   H	1.690	1.287	0.000	 H	1	UNK0	0.000	
38	   H	1.463	0.440	0.000	 H	1	UNK0	0.000	
39	   H	2.310	0.213	0.000	 H	1	UNK0	0.000	
40	   H	2.556	-0.213	0.000	 H	1	UNK0	0.000	
41	   H	2.329	-1.060	0.000	 H	1	UNK0	0.000	
42	   H	3.176	-1.287	0.000	 H	1	UNK0	0.000	
43	   H	6.084	3.750	0.000	 H	1	UNK0	0.000	
44	   H	5.464	4.370	0.000	 H	1	UNK0	0.000	
45	   H	4.844	3.750	0.000	 H	1	UNK0	0.000	
46	   H	5.676	-3.833	0.000	 H	1	UNK0	0.000	
47	   H	6.075	-3.142	0.000	 H	1	UNK0	0.000	
48	   H	4.288	-3.213	0.000	 H	1	UNK0	0.000	
49	   H	4.061	-4.060	0.000	 H	1	UNK0	0.000	
50	   H	4.908	-4.287	0.000	 H	1	UNK0	0.000	
@<TRIPOS>BOND
1 1 13 1
2 2 16 1
3 2 21 1
4 3 16 2
5 4 17 2
6 5 17 1
7 5 30 1
8 6 31 1
9 6 32 1
10 5 7 1
11 7 8 1
12 7 9 1
13 7 23 1
14 6 8 1
15 8 10 1
16 8 24 1
17 1 9 1
18 9 11 1
19 9 25 1
20 10 12 1
21 10 26 1
22 10 27 1
23 11 12 2
24 11 28 1
25 12 16 1
26 13 14 1
27 13 15 1
28 13 29 1
29 14 18 1
30 14 33 1
31 14 34 1
32 15 19 1
33 15 35 1
34 15 36 1
35 17 20 1
36 18 37 1
37 18 38 1
38 18 39 1
39 19 40 1
40 19 41 1
41 19 42 1
42 20 43 1
43 20 44 1
44 20 45 1
45 21 22 1
46 21 46 1
47 21 47 1
48 22 48 1
49 22 49 1
50 22 50 1
@<TRIPOS>SUBSTRUCTURE
1	UNK0	1	GROUP	1 ****	UNK
