# created with PyMOL 3.1.6.1
@<TRIPOS>MOLECULE
123914
82 83 1                 
SMALL
USER_CHARGES
@<TRIPOS>ATOM
1	   O	6.330	-2.373	0.000	O.3	1	UNK0	0.000	
2	   O	6.830	-0.507	0.000	O.3	1	UNK0	0.000	
3	   O	6.830	2.493	0.000	O.3	1	UNK0	0.000	
4	   O	3.732	-0.873	0.000	O.3	1	UNK0	0.000	
5	   O	8.562	2.493	0.000	O.3	1	UNK0	0.000	
6	   O	5.098	0.493	0.000	O.3	1	UNK0	0.000	
7	   O	8.562	0.493	0.000	O.3	1	UNK0	0.000	
8	   O	4.598	-4.373	0.000	O.3	1	UNK0	0.000	
9	   O	7.196	-3.873	0.000	O.3	1	UNK0	0.000	
10	   O	7.830	-2.239	0.000	O.3	1	UNK0	0.000	
11	   O	7.830	-0.507	0.000	O.co2	1	UNK0	0.000	
12	   O	5.098	3.493	0.000	O.3	1	UNK0	0.000	
13	   O	7.196	-5.873	0.000	O.3	1	UNK0	0.000	
14	   O	10.294	3.493	0.000	O.3	1	UNK0	0.000	
15	   O	6.830	3.493	0.000	O.3	1	UNK0	0.000	
16	   O	2.866	-1.373	0.000	O.2	1	UNK0	0.000	
17	   O	8.562	5.493	0.000	O.3	1	UNK0	0.000	
18	   O	6.830	5.493	0.000	O.3	1	UNK0	0.000	
19	   O	10.294	6.493	0.000	O.2	1	UNK0	0.000	
20	   N	3.732	-2.873	0.000	N.pl3	1	UNK0	0.000	
21	   C	6.330	-1.373	0.000	C.3	1	UNK0	0.000	
22	   C	4.598	-2.373	0.000	C.3	1	UNK0	0.000	
23	   C	5.464	-2.873	0.000	C.3	1	UNK0	0.000	
24	   C	4.598	-1.373	0.000	C.3	1	UNK0	0.000	
25	   C	5.464	-0.873	0.000	C.3	1	UNK0	0.000	
26	   C	6.830	0.493	0.000	C.3	1	UNK0	0.000	
27	   C	5.964	0.993	0.000	C.3	1	UNK0	0.000	
28	   C	7.696	0.993	0.000	C.3	1	UNK0	0.000	
29	   C	5.464	-3.873	0.000	C.3	1	UNK0	0.000	
30	   C	5.964	1.993	0.000	C.3	1	UNK0	0.000	
31	   C	7.696	1.993	0.000	C.3	1	UNK0	0.000	
32	   C	6.330	-4.373	0.000	C.3	1	UNK0	0.000	
33	   C	7.330	-1.373	0.000	C.2	1	UNK0	0.000	
34	   C	5.098	2.493	0.000	C.3	1	UNK0	0.000	
35	   C	8.562	3.493	0.000	C.3	1	UNK0	0.000	
36	   C	6.330	-5.373	0.000	C.3	1	UNK0	0.000	
37	   C	2.866	-2.373	0.000	C.2	1	UNK0	0.000	
38	   C	9.428	3.993	0.000	C.3	1	UNK0	0.000	
39	   C	7.696	3.993	0.000	C.3	1	UNK0	0.000	
40	   C	9.428	4.993	0.000	C.3	1	UNK0	0.000	
41	   C	2.000	-2.873	0.000	C.3	1	UNK0	0.000	
42	   C	7.696	4.993	0.000	C.3	1	UNK0	0.000	
43	   C	10.294	5.493	0.000	C.2	1	UNK0	0.000	
44	   H	4.061	-2.063	0.000	 H	1	UNK0	0.000	
45	   H	6.200	-3.298	0.000	 H	1	UNK0	0.000	
46	   H	4.598	-0.753	0.000	 H	1	UNK0	0.000	
47	   H	6.293	0.183	0.000	 H	1	UNK0	0.000	
48	   H	5.863	-0.398	0.000	 H	1	UNK0	0.000	
49	   H	5.066	-0.398	0.000	 H	1	UNK0	0.000	
50	   H	5.964	0.373	0.000	 H	1	UNK0	0.000	
51	   H	7.696	0.373	0.000	 H	1	UNK0	0.000	
52	   H	5.464	-4.493	0.000	 H	1	UNK0	0.000	
53	   H	5.964	2.613	0.000	 H	1	UNK0	0.000	
54	   H	8.233	1.683	0.000	 H	1	UNK0	0.000	
55	   H	3.732	-3.493	0.000	 H	1	UNK0	0.000	
56	   H	6.330	-3.753	0.000	 H	1	UNK0	0.000	
57	   H	4.488	2.601	0.000	 H	1	UNK0	0.000	
58	   H	4.886	1.910	0.000	 H	1	UNK0	0.000	
59	   H	3.732	-0.253	0.000	 H	1	UNK0	0.000	
60	   H	8.025	3.183	0.000	 H	1	UNK0	0.000	
61	   H	4.561	0.803	0.000	 H	1	UNK0	0.000	
62	   H	9.099	0.803	0.000	 H	1	UNK0	0.000	
63	   H	4.598	-4.993	0.000	 H	1	UNK0	0.000	
64	   H	5.720	-5.265	0.000	 H	1	UNK0	0.000	
65	   H	6.118	-5.956	0.000	 H	1	UNK0	0.000	
66	   H	9.965	4.303	0.000	 H	1	UNK0	0.000	
67	   H	7.159	4.303	0.000	 H	1	UNK0	0.000	
68	   H	7.733	-4.183	0.000	 H	1	UNK0	0.000	
69	   H	8.450	-2.239	0.000	 H	1	UNK0	0.000	
70	   H	9.428	5.613	0.000	 H	1	UNK0	0.000	
71	   H	4.561	3.803	0.000	 H	1	UNK0	0.000	
72	   H	8.307	4.885	0.000	 H	1	UNK0	0.000	
73	   H	7.908	5.576	0.000	 H	1	UNK0	0.000	
74	   H	1.690	-2.336	0.000	 H	1	UNK0	0.000	
75	   H	1.463	-3.183	0.000	 H	1	UNK0	0.000	
76	   H	2.310	-3.410	0.000	 H	1	UNK0	0.000	
77	   H	7.196	-6.493	0.000	 H	1	UNK0	0.000	
78	   H	10.831	3.803	0.000	 H	1	UNK0	0.000	
79	   H	6.293	3.803	0.000	 H	1	UNK0	0.000	
80	   H	10.831	5.183	0.000	 H	1	UNK0	0.000	
81	   H	8.562	6.113	0.000	 H	1	UNK0	0.000	
82	   H	6.830	6.113	0.000	 H	1	UNK0	0.000	
@<TRIPOS>BOND
1 1 21 1
2 1 23 1
3 3 30 1
4 3 31 1
5 4 59 1
6 6 61 1
7 7 62 1
8 8 63 1
9 9 68 1
10 10 33 1
11 10 69 1
12 11 33 2
13 12 34 1
14 12 71 1
15 13 36 1
16 13 77 1
17 14 78 1
18 15 79 1
19 16 37 2
20 17 81 1
21 18 42 1
22 18 82 1
23 19 43 2
24 20 37 1
25 20 55 1
26 2 21 1
27 21 25 1
28 21 33 1
29 20 22 1
30 22 23 1
31 22 24 1
32 22 44 1
33 23 29 1
34 23 45 1
35 4 24 1
36 24 25 1
37 24 46 1
38 25 48 1
39 25 49 1
40 2 26 1
41 26 27 1
42 26 28 1
43 26 47 1
44 6 27 1
45 27 30 1
46 27 50 1
47 7 28 1
48 28 31 1
49 28 51 1
50 8 29 1
51 29 32 1
52 29 52 1
53 30 34 1
54 30 53 1
55 5 31 1
56 31 54 1
57 9 32 1
58 32 36 1
59 32 56 1
60 34 57 1
61 34 58 1
62 5 35 1
63 35 38 1
64 35 39 1
65 35 60 1
66 36 64 1
67 36 65 1
68 37 41 1
69 14 38 1
70 38 40 1
71 38 66 1
72 15 39 1
73 39 42 1
74 39 67 1
75 17 40 1
76 40 43 1
77 40 70 1
78 41 74 1
79 41 75 1
80 41 76 1
81 42 72 1
82 42 73 1
83 43 80 1
@<TRIPOS>SUBSTRUCTURE
1	UNK0	1	GROUP	1 ****	UNK
